TAAL- EN LETTERKUNDE 8331 G 32 EFFEN, J. VAN ERNST EN BOERT UIT DEN HOLLANDSCHEN SPECTATOR 3e dr. Amsterdam, Van Kesteren, 1870. 19 cm, 8-++192 blz. ELSSCHOT, W. * 8338 Hi 19 VERZAMELD WERK 4e dr. Amsterdam, Van Kampen en Zoon, 1960. 21 cm, 752 blz. Villa des roses; 10e dr. - Een ontgoocheling; 8e dr. - De Verlossing; 8e dr. — Lijmen; Ile dr. - Het been; ! le dr. - Kaas; i3e dr. ~ Tsjip; 12e dr. — De lecuwentemmer; 10e dr. — Pensioen; 7e dr. - Het tank- schip; 7e dr. — Het dwaallicht; 7e dr. — Verzen; 8e verm. dr. EMANTS, M. * 8338 H 27 EEN NAGELATEN BEKENTENIS Amsterdam, Van Oorschot, 1963. 21 cm, 230 biz. EXODUS, A. 8336 D 30 NAHAK UIT DE BUGEBOUWEN 2e dr. Maastricht, Leiter-Nypels, 1941. 20 cm, 135 blz. GEEL, J. 8331 G 26 ONDERZOEK EN PHANTASIE — GESPREK OP DEN DRACHENFELS — HET PROZA Amsterdam, Mij. voor Goede en Goedkoope Lectuur, 1916. 19 cm, blz. Jaartal geschat. GENESTET, P. A. DE 8331 F 27-28 DICHTWERKEN Uitg. onder toezicht van C. P. Tiele; 2e dr. Amsterdam, Kraay, 1871. 20 cm, 2 din. GIJSEN, M. * 8340 H 29 HET BOEK VAN JOACHIM VAN BABYLON Hetwelk bevat het oprecht verhaal van zijn leven en dat van zijn beroemde huisvrouw Suzanna; kort geleden ontdekt in de opgra- vingen van Nat-Tah-Nam en voor het eerst zorgvuldig vertaald en uitgegeven door een liefhebber der oudheid; voorafgegaan door een beschouwing van C. J. E. Dinaux; 25e dr. Den Haag, Stols, 1959. 22 cm, 223 biz., 12 afbn. 21
GUSEN, M. * 8341 F 14 KLAAGLIED OM AGNES 10e dr. *s-Gravenhage, Nijgh en Van Ditmar, 1951. 20 cm, 185 blz. GIJSEN, M. * 8338 H 33 TELEMACHUS IN HET DORP Een verhaal zonder wind en wolken; 8e dr. ’s-Gravenhage, Stols, 1955. 21 cm, 179 blz. GIJSEN, M. 8331 H 08 VAN EEN WOLF DIE VREEMDE TALEN SPRAK. *s-Gravenhage, Stols, 1953. 17 cm obl., 32 blz., afbn. HILDEBRAND 8335 C 12 NA VIJETIG JAAR Noodige en overbedige opneldering van de Camera obscura; Ze dr. Haarlem, De Erven Bohn, 1888. 23 cm, 8+215 blz. HOOFT, H. P. ’r 8332 B 62 DE STUDENT BEETS Met een inleiding over humor. Haarlem, De Erven Bohn, 1914. 25 cm, 55 biz., 9 afon. HOOFT, P. C. 8336 H 18 GEERAERDT VAN VELSEN Toegelicht door F. A. Stoett. Zutphen, Thieme, 1906. 13 cm, 136 blz. Jaartal geschat. ROMEIN-VERSCHOOR, A. 8335 E 30 P. C. Hoort 1581-1647 Amsterdam, Meulenhoff, 1947. 21 cm, 91 blz., 12 afbn. HUIZINGA, L. 8335 D 19 DRIMDRAM Veertig vreemde verzen. Den Haag, 1952. 22 em, 90 blz. LENNEP, J. VAN 8336 D 07-08 ELIZABETH MuscH Rotterdam, Wijt, 1857. 20 cm, 2 din. Romantische werken, di. 7-8. 22